Circuit: * C:\data\SpiderOak\projects\ChristmasStarLight\spice\NotWorking.asc

WARNING: Less than two connections to node NC_02.  This node is used by S:U1:1.
Direct Newton iteration for .op point succeeded.

Date: Sat Jan 21 00:27:08 2017
Total elapsed time: 0.216 seconds.

tnom = 27
temp = 27
method = modified trap
totiter = 2111
traniter = 2100
tranpoints = 1051
accept = 1051
rejected = 0
matrix size = 15
fillins = 0
solver = Normal
Matrix Compiler1: 398 bytes object code size  0.3/0.1/[0.1]
Matrix Compiler2: off  [0.2]/0.3/0.2


