Circuit: * C:\data\SpiderOak\projects\ChristmasStarLight\spice\OnWayToWorking.asc

Direct Newton iteration for .op point succeeded.

Date: Sat Jan 21 11:19:49 2017
Total elapsed time: 0.111 seconds.

tnom = 27
temp = 27
method = modified trap
totiter = 3898
traniter = 3890
tranpoints = 1430
accept = 1340
rejected = 90
matrix size = 16
fillins = 0
solver = Normal
Matrix Compiler1: 466 bytes object code size  0.4/0.1/[0.1]
Matrix Compiler2: 968 bytes object code size  0.2/0.3/[0.2]


